LAMMPS (12 Dec 2018)
units metal
boundary p p p
atom_style atomic
#dimension  2
newton off
read_data data.lammps
  orthogonal box = (0 0 0) to (7.93553 4.58158 250)
  reading atoms ...
  4 atoms
replicate 50 50 1
  orthogonal box = (0 0 0) to (396.776 229.079 250)
  10000 atoms
  Time spent = 0.0517681 secs

### interactions
pair_style mgp
pair_coeff * * ../Sn.mgp-3 Sn yes yes
#pair_style tersoff
#pair_coeff * * Sn.tersoff Sn

mass * 118.71

velocity all create 500 87287 dist gaussian
### run

#fix  1 all nve
#fix 1 all nvt temp 500 500 1
fix 1 all npt temp 500 500 100 x 0.0 0.0 100 y 0.0 0.0 100
dump dump_all all custom 1000 traj.lammps id type x y z

# set up restart
variable a loop 50
label loopa
   run 100000
  update every 1 steps, delay 10 steps, check yes
Step Temp E_pair E_mol TotEng Press Volume
0          500       870000            0    870646.24   -91.352539     22723280
Loop time of 1723.98 on 288 procs for 100000 steps with 10000 atoms

NeiTotal # of neighbors = 384144
System init for write_restart ...
Setting up Verlet run ...
  Unit style    : metal
  Current step  : 100000
  Time step     : 0.001
   write_restart restart_1.dat
next a
jump in.lammps loopa
   run 100000
Step Temp E_pair E_mol TotEng Press Volume
100000    349.26081      1555853            0    1556304.4   -150.34104     17099415
Loop time of 2894.56 on 288 procs for 100000 steps with 10000 atoms

System init for write_restart ...
Setting up Verlet run ...
  Unit style    : metal
  Current step  : 200000
   write_restart restart_2.dat
next a
jump in.lammps loopa
   run 100000
Step Temp E_pair E_mol TotEng Press Volume
200000    585.55056      4038078            0    4038834.8   -13.336664     13939082
Loop time of 17858.6 on 288 procs for 100000 steps with 10000 atoms

System init for write_restart ...
Setting up Verlet run ...
   write_restart restart_3.dat
next a
jump in.lammps loopa
   run 100000
Step Temp E_pair E_mol TotEng Press Volume
300000    639.21461      4889310            0    4890136.2   -1.2107892     13449268
Loop time of 20193.3 on 288 procs for 100000 steps with 10000 atoms

HistogrAve neighs/atom = 91.521
System init for write_restart ...
   write_restart restart_4.dat
next a
jump in.lammps loopa
   run 100000
Step Temp E_pair E_mol TotEng Press Volume
400000    626.64505      5223207            0    5224016.9    7.2813607     13243847
Loop time of 27516.2 on 288 procs for 100000 steps with 10000 atoms

   write_restart restart_5.dat
next a
jump in.lammps loopa
   run 100000
Step Temp E_pair E_mol TotEng Press Volume
500000    611.66308      5433934            0    5434724.6    5.5867846     13299377
Loop time of 37505.7 on 288 procs for 100000 steps with 10000 atoms

   write_restart restart_6.dat
next a
jump in.lammps loopa
   run 100000
Step Temp E_pair E_mol TotEng Press Volume
600000    572.28665      5500151            0    5500890.7   -4.8152994     13363212
Loop time of 38571.8 on 288 procs for 100000 steps with 10000 atoms

   write_restart restart_7.dat
next a
jump in.lammps loopa
   run 100000
Step Temp E_pair E_mol TotEng Press Volume
700000    547.49198      5570289            0    5570996.6   -6.2832512     13363664
Loop time of 38213.7 on 288 procs for 100000 steps with 10000 atoms

   write_restart restart_8.dat
next a
jump in.lammps loopa
   run 100000
Step Temp E_pair E_mol TotEng Press Volume
800000    519.20598      5590140            0    5590811.1    1.7466171     13365253
Loop time of 38936.1 on 288 procs for 100000 steps with 10000 atoms

Neighbor list builTotal # of neighbors = 966130
   write_restart restart_9.dat
next a
jump in.lammps loopa
   run 100000
Step Temp E_pair E_mol TotEng Press Volume
900000    498.35579      5625285            0    5625929.1    6.2486952     13373855
Loop time of 39454.7 on 288 procs for 100000 steps with 10000 atoms

   write_restart restart_10.dat
next a
jump in.lammps loopa
   run 100000
Step Temp E_pair E_mol TotEng Press Volume
1000000    490.33645      5656895            0    5657528.7    6.9887832     13494085
Loop time of 39794.2 on 288 procs for 100000 steps with 10000 atoms

   write_restart restart_11.dat
next a
jump in.lammps loopa
   run 100000
Step Temp E_pair E_mol TotEng Press Volume
1100000     485.4375      5632649            0    5633276.4   -16.732422     13854184
Loop time of 40057.7 on 288 procs for 100000 steps with 10000 atoms

   write_restart restart_12.dat
next a
jump in.lammps loopa
   run 100000
Step Temp E_pair E_mol TotEng Press Volume
1200000    499.63537      5626891            0    5627536.8   -12.986254     13878720
Loop time of 39774.6 on 288 procs for 100000 steps with 10000 atoms

   write_restart restart_13.dat
next a
jump in.lammps loopa
   run 100000
Step Temp E_pair E_mol TotEng Press Volume
1300000    502.20287      5610178            0    5610827.1   -4.0446095     13885217
Loop time of 39224.4 on 288 procs for 100000 steps with 10000 atoms

   write_restart restart_14.dat
next a
jump in.lammps loopa
   run 100000
Step Temp E_pair E_mol TotEng Press Volume
1400000    509.64154      5581238            0    5581896.7   -9.5518717     13907579
Loop time of 39899.3 on 288 procs for 100000 steps with 10000 atoms

  0 ave 0 max 0 min

System init for write_restart ...
Setting up Verlet run ...
  Unit style    : metal
  Current step  : 1500000
  Time step     : 0.001
Step Temp E_pair E_mol TotEng Press Volume
1500000    508.17604      5613796            0    5614452.8   0.42935122     14246902
