LAMMPS (12 Dec 2018)
units metal
boundary p p p
atom_style atomic
newton off
read_data data.lammps
  orthogonal box = (0 0 0) to (7.93553 4.58158 180)
  reading atoms ...
  4 atoms
replicate 20 40 1
  orthogonal box = (0 0 0) to (158.711 183.263 180)
  3200 atoms
  Time spent = 0.00957417 secs

### interactions
pair_style mgp
pair_coeff * * ../Sn.mgp-3 Sn yes yes

mass * 118.71

velocity all create 200 87287 dist gaussian
### run

#fix  1 all nve
#fix 1 all nvt temp 500 500 1
fix 1 all npt temp 200 200 100 x 0.0 0.0 100 y 0.0 0.0 100
dump dump_all all custom 1000 traj.lammps id type x y z

# set up restart
variable a loop 30
label loopa
   run 100000
  update every 1 steps, delay 10 steps, check yes
Step Temp E_pair E_mol TotEng Press Volume
0          200       278400            0     278482.7   -152.19595    5235443.6
Loop time of 367.615 on 128 procs for 100000 steps with 3200 atoms

AveSystem init for write_restart ...
Setting up Verlet run ...
   write_restart restart_1.dat
next a
jump in.lammps loopa
   run 100000
Step Temp E_pair E_mol TotEng Press Volume
100000    110.28646       278023            0     278068.6   0.42599874      4907459
Loop time of 365.044 on 128 procs for 100000 steps with 3200 atoms

NeiSystem init for write_restart ...
   write_restart restart_2.dat
next a
jump in.lammps loopa
   run 100000
Step Temp E_pair E_mol TotEng Press Volume
200000    120.14051       277560            0    277609.68   -1.9428042    4900755.7
Loop time of 367.553 on 128 procs for 100000 steps with 3200 atoms

   write_restart restart_3.dat
next a
jump in.lammps loopa
   run 100000
Step Temp E_pair E_mol TotEng Press Volume
300000    137.11276       277464            0     277520.7   -3.5683222    4891471.2
Loop time of 369.905 on 128 procs for 100000 steps with 3200 atoms

   write_restart restart_4.dat
next a
jump in.lammps loopa
   run 100000
Step Temp E_pair E_mol TotEng Press Volume
400000    147.24227       276384            0    276444.89   -3.1924873    4879896.3
Loop time of 377.853 on 128 procs for 100000 steps with 3200 atoms

   write_restart restart_5.dat
next a
jump in.lammps loopa
   run 100000
Step Temp E_pair E_mol TotEng Press Volume
500000    163.00328       276011            0     276078.4  0.014118561    4867274.6
Loop time of 391.509 on 128 procs for 100000 steps with 3200 atoms

   write_restart restart_6.dat
next a
jump in.lammps loopa
   run 100000
Step Temp E_pair E_mol TotEng Press Volume
600000      177.365       275905            0    275978.34  -0.85954918    4866356.2
Loop time of 962.711 on 128 procs for 100000 steps with 3200 atoms

   write_restart restart_7.dat
next a
jump in.lammps loopa
   run 100000
Step Temp E_pair E_mol TotEng Press Volume
700000    374.17607       719569            0    719723.72   -192.13943      3090354
Loop time of 1421.63 on 128 procs for 100000 steps with 3200 atoms

   write_restart restart_8.dat
next a
jump in.lammps loopa
   run 100000
Step Temp E_pair E_mol TotEng Press Volume
800000    344.80122       986375            0    986517.58   -38.632733      2444999
Loop time of 2210.48 on 128 procs for 100000 steps with 3200 atoms

   write_restart restart_9.dat
next a
jump in.lammps loopa
   run 100000
Step Temp E_pair E_mol TotEng Press Volume
900000    322.50001      1213585            0    1213718.4   -69.751962    2004429.9
Loop time of 2619.99 on 128 procs for 100000 steps with 3200 atoms

   write_restart restart_10.dat
next a
jump in.lammps loopa
   run 100000
Step Temp E_pair E_mol TotEng Press Volume
1000000    301.00412      1387188            0    1387312.5   -12.778837    1671134.4
Loop time of 2725.92 on 128 procs for 100000 steps with 3200 atoms

   write_restart restart_11.dat
next a
jump in.lammps loopa
   run 100000
Step Temp E_pair E_mol TotEng Press Volume
1100000    272.44682      1504418            0    1504530.7   -58.106323    1426697.3
Loop time of 2599.72 on 128 procs for 100000 steps with 3200 atoms

   write_restart restart_12.dat
next a
jump in.lammps loopa
   run 100000
Step Temp E_pair E_mol TotEng Press Volume
1200000    244.65165      1596431            0    1596532.2    -47.76102    1245092.5
Loop time of 2493.05 on 128 procs for 100000 steps with 3200 atoms

   write_restart restart_13.dat
next a
jump in.lammps loopa
   run 100000
Step Temp E_pair E_mol TotEng Press Volume
1300000    233.08706      1669704            0    1669800.4    11.028938    1112051.7
Loop time of 2386.89 on 128 procs for 100000 steps with 3200 atoms

   write_restart restart_14.dat
next a
jump in.lammps loopa
   run 100000
Step Temp E_pair E_mol TotEng Press Volume
1400000    218.27819      1731888            0    1731978.3   -69.734148    1002531.4
Loop time of 2400.48 on 128 procs for 100000 steps with 3200 atoms

   write_restart restart_15.dat
next a
jump in.lammps loopa
   run 100000
Step Temp E_pair E_mol TotEng Press Volume
1500000     213.4648      1804158            0    1804246.3  -0.80140036    921424.65
Loop time of 2350.76 on 128 procs for 100000 steps with 3200 atoms

   write_restart restart_16.dat
next a
jump in.lammps loopa
   run 100000
Step Temp E_pair E_mol TotEng Press Volume
1600000    203.45217      1823950            0    1824034.1    59.063557    874180.03
Loop time of 2314.89 on 128 procs for 100000 steps with 3200 atoms

   write_restart restart_17.dat
next a
jump in.lammps loopa
   run 100000
Step Temp E_pair E_mol TotEng Press Volume
1700000    215.40475      1886207            0    1886296.1    -136.0097    807600.58
Loop time of 2271.23 on 128 procs for 100000 steps with 3200 atoms

   write_restart restart_18.dat
next a
jump in.lammps loopa
   run 100000
Step Temp E_pair E_mol TotEng Press Volume
1800000     228.9082      1972123            0    1972217.7   -49.363906    749787.76
Loop time of 2211.42 on 128 procs for 100000 steps with 3200 atoms

   write_restart restart_19.dat
next a
jump in.lammps loopa
   run 100000
Step Temp E_pair E_mol TotEng Press Volume
1900000    282.23098      2139516            0    2139632.7   -71.880905    710357.42
Loop time of 2085.13 on 128 procs for 100000 steps with 3200 atoms

   write_restart restart_20.dat
next a
jump in.lammps loopa
   run 100000
Step Temp E_pair E_mol TotEng Press Volume
2000000    245.94753      2149954            0    2150055.7    69.716338    709883.27
Loop time of 2090.89 on 128 procs for 100000 steps with 3200 atoms

   write_restart restart_21.dat
next a
jump in.lammps loopa
   run 100000
Step Temp E_pair E_mol TotEng Press Volume
2100000    220.14307      2154135            0      2154226    28.881266    708903.21
Loop time of 2017.75 on 128 procs for 100000 steps with 3200 atoms

   write_restart restart_22.dat
next a
jump in.lammps loopa
   run 100000
Step Temp E_pair E_mol TotEng Press Volume
2200000    205.70149      2155069            0    2155154.1    22.432441    709374.05
Loop time of 2011.88 on 128 procs for 100000 steps with 3200 atoms

   write_restart restart_23.dat
next a
jump in.lammps loopa
   run 100000
Step Temp E_pair E_mol TotEng Press Volume
2300000    192.85055      2158142            0    2158221.7     51.22029    708839.43
Loop time of 2008.09 on 128 procs for 100000 steps with 3200 atoms

   write_restart restart_24.dat
next a
jump in.lammps loopa
   run 100000
Step Temp E_pair E_mol TotEng Press Volume
2400000    187.97325      2157654            0    2157731.7   -8.4778354    709160.34
Loop time of 2031.29 on 128 procs for 100000 steps with 3200 atoms

   write_restart restart_25.dat
next a
jump in.lammps loopa
   run 100000
Step Temp E_pair E_mol TotEng Press Volume
2500000    196.10622      2154447            0    2154528.1    58.205327    707590.29
Loop time of 2017.16 on 128 procs for 100000 steps with 3200 atoms

   write_restart restart_26.dat
next a
jump in.lammps loopa
   run 100000
Step Temp E_pair E_mol TotEng Press Volume
2600000    209.75062      2157648            0    2157734.7   -108.61927    707651.81
Loop time of 2025.37 on 128 procs for 100000 steps with 3200 atoms

   write_restart restart_27.dat
next a
jump in.lammps loopa
   run 100000
Step Temp E_pair E_mol TotEng Press Volume
2700000    212.35329      2156227            0    2156314.8    -26.88623    709905.84
Loop time of 2056.06 on 128 procs for 100000 steps with 3200 atoms

   write_restart restart_28.dat
next a
jump in.lammps loopa
   run 100000
Step Temp E_pair E_mol TotEng Press Volume
2800000    205.74956      2153887            0    2153972.1    51.201065    708828.35
Loop time of 2038.33 on 128 procs for 100000 steps with 3200 atoms

   write_restart restart_29.dat
next a
jump in.lammps loopa
   run 100000
Step Temp E_pair E_mol TotEng Press Volume
2900000    199.15546      2157097            0    2157179.4    210.85261    708134.14
Loop time of 2024.79 on 128 procs for 100000 steps with 3200 atoms

   write_restart restart_30.dat
next a
jump in.lammps loopa

#timer every 100
#    timestep 0.02
#run 3000000
4 |  0.01

System init for write_restart ...
